88

H   -9.84018   -2.65292    0.68953
H   -9.74966   -4.13148   -0.32175
C   -9.19080   -3.45004    0.31923
H   -8.77005   -3.98552    1.17379
O   -8.14497   -2.91019   -0.50621
O   -7.42987   -1.71061    1.27072
C   -7.31796   -2.03336    0.10791
H   -6.77372   -1.06897   -1.70590
C   -6.25891   -1.52851   -0.85225
H   -5.84878    0.29245    0.22039
H   -5.73422   -2.40090   -1.26191
H   -5.61737    5.60342    0.70102
H   -5.34814    3.83884    2.43229
C   -5.28581   -0.54802   -0.19575
C   -5.12065    4.66939    0.45580
C   -4.96839    3.68011    1.42740
H   -4.79981   -1.04092    0.65361
H   -4.74023    5.21947   -1.59482
H   -4.70544    0.46871   -2.02218
C   -4.62874    4.45369   -0.83282
C   -4.32609    2.48124    1.11370
C   -4.22351   -0.04820   -1.18246
H   -4.20902    1.71785    1.87648
C   -3.98820    3.25525   -1.14490
C   -3.82843    2.25575   -0.17568
H   -3.69721   -0.90560   -1.61114
H   -3.60271    3.09396   -2.14779
C   -3.21381    0.92871   -0.56180
C   -2.12520    0.35151    0.32053
C   -1.81375    0.95048   -1.14951
C   -1.79580   -1.09611    0.50374
C   -1.43239    1.04026    1.45198
C   -1.39814   -1.92547   -0.53470
C   -1.23731   -0.01900   -2.12966
C   -1.20238   -1.26870    1.80867
C   -1.11304   -1.37670   -1.87591
C   -0.98125    0.04150    2.38996
C   -0.87894    2.11685   -1.18072
C   -0.70238    2.20869    1.30089
C   -0.44540   -2.99032   -0.28795
C   -0.42024    2.75665   -0.03988
C   -0.30283   -2.30679    2.06522
C   -0.21070    0.65246   -2.89030
C    0.00635   -2.11688   -2.42324
C    0.00881    1.96269   -2.30830
C    0.08514   -3.18959    0.99075
C    0.13012    0.26506    3.20713
C    0.41657   -3.11291   -1.45016
C    0.46758    2.44087    2.12402
C    0.85914   -2.07177    2.90686
C    0.85989   -0.05481   -3.44393
C    0.87268    1.49522    3.07223
C    0.91797    3.31277   -0.01179
C    0.97096   -1.47458   -3.20624
C    1.07117   -0.81218    3.46587
C    1.29193    2.51671   -2.30218
C    1.46483    3.12435    1.31998
C    1.49287   -3.50601    1.15681
C    1.75809    3.21028   -1.12549
C    1.76734   -3.42706   -1.29367
C    1.97233   -2.81450    2.34271
C    2.19585    0.51746   -3.42930
C    2.28241    1.18861    3.24237
C    2.31817   -3.62197    0.03766
C    2.37822   -1.79270   -3.03837
C    2.40562   -0.23973    3.48659
C    2.40730    1.77702   -2.86986
C    2.76943   -2.74933   -2.10042
C    2.82028    2.83913    1.48937
C    3.13679   -0.55957   -3.17591
C    3.16714    2.90314   -0.95234
C    3.23754    1.84640    2.46649
C    3.25592   -2.26551    2.36036
C    3.47680   -0.95175    2.94353
C    3.56967    2.01630   -2.03243
C    3.65374   -3.05491    0.05692
C    3.68881    2.72082    0.32903
C    3.93274   -2.51496   -1.26500
C    4.11356   -2.38844    1.19446
C    4.25322   -0.33227   -2.36940
C    4.35353    1.10757    1.90575
C    4.47071   -0.26435    2.13765
C    4.47379    0.98134   -1.78586
C    4.63266    1.64806    0.58400
C    4.65988   -1.33015   -1.39554
C    4.86613   -1.15253    1.05745
C    5.01648    0.79405   -0.45184
C    5.13341   -0.63438   -0.21038
